/*--------------------------------*- C++ -*----------------------------------*\
| =========                 |                                                 |
| \\      /  F ield         | OpenFOAM Extend Project: Open Source CFD        |
|  \\    /   O peration     | Version:  1.6-ext                               |
|   \\  /    A nd           | Web:      www.extend-project.de                 |
|    \\/     M anipulation  |                                                 |
\*---------------------------------------------------------------------------*/
FoamFile
{
    version     2.0;
    format      ascii;
    class       dictionary;
    location    "system";
    object      fvSchemes;
}
// * * * * * * * * * * * * * * * * * * * * * * * * * * * * * * * * * * * * * //

d2dt2Schemes
{
    default            steadyState;
}

ddtSchemes
{
    default            steadyState;
}

gradSchemes
{
    //default            extendedLeastSquares 0;

    // OpenFOAM.org must use pointCellsLeastSquares or edgeCellsLeastSquares as
    // they are the only schemes to correctly use the boundary delta vectors
    default            pointCellsLeastSquares;
}

divSchemes
{
    default            Gauss linear;
}

laplacianSchemes
{
    default            none;
    laplacian(DD,D)    Gauss linear corrected;
    laplacian(DDD,DD)  Gauss linear corrected;
}

snGradSchemes
{
    default            none;
    snGrad(D)          corrected;
    snGrad(DD)         corrected;
}

interpolationSchemes
{
    default            none;
    interpolate(impK)  linear;
    interpolate(grad(D)) linear;
    interpolate(grad(DD)) linear;
}

// ************************************************************************* //
