/*--------------------------------*- C++ -*----------------------------------*\
| =========                 |                                                 |
| \\      /  F ield         | OpenFOAM: The Open Source CFD Toolbox           |
|  \\    /   O peration     | Version:  v2012                                 |
|   \\  /    A nd           | Website:  www.openfoam.com                      |
|    \\/     M anipulation  |                                                 |
\*---------------------------------------------------------------------------*/
FoamFile
{
    version     2.0;
    format      ascii;
    class       dictionary;
    object      changeDictionaryDict;
}
// * * * * * * * * * * * * * * * * * * * * * * * * * * * * * * * * * * * * * //

boundary
{
    //front
    //{
    //    type empty;
    //    physicalType empty;
    //}
    //back
    //{
    //    type empty;
    //    physicalType empty;
    //}

    symmx
    {
       type symmetry;
       physicalType symmetry;
    }
    symmz
    {
        type symmetry;
        physicalType symmetry;
    }
    front
    {
        type patch;
        physicalType patch;
    }

    //left
    //{
    //    type patch;
    //    physicalType patch;
    //}
}

// ************************************************************************* //
